
data_Al
_symmetry_space_group_name_H-M   'P 1'
_cell_length_a   5.70558868814
_cell_length_b   5.70558868814
_cell_length_c   34.9394503837
_cell_angle_alpha   90.
_cell_angle_beta   90.
_cell_angle_gamma   120
_symmetry_Int_Tables_number   1
_chemical_formula_structural   Al
_chemical_formula_sum   Al37
_cell_volume   1137.40986313
_cell_formula_units_Z   37
loop_
_symmetry_equiv_pos_site_id
_symmetry_equiv_pos_as_xyz
1  'x, y, z'
loop_
_atom_site_type_symbol
_atom_site_label
_atom_site_symmetry_multiplicity
_atom_site_fract_x
_atom_site_fract_y
_atom_site_fract_z
_atom_site_occupancy
Al Al1 1 0.332884297 0.166442399 0.666792555 1
Al Al2 1 0.3333335 0.666667 0.666247001 1
Al Al3 1 0.833558101 0.166442399 0.666792555 1
Al Al4 1 0.833558101 0.667116203 0.666792555 1
Al Al5 1 0.164323006 0.328646011 0.933033289 1
Al Al6 1 0.164323006 0.835676494 0.933033289 1
Al Al7 1 0.6666665 0.333333 0.931454308 1
Al Al8 1 0.671353489 0.835676494 0.933033289 1
Al Al9 1 -0.0 -0.0 0.799215081 1
Al Al10 1 0.000801748 0.500400874 0.799901632 1
Al Al11 1 0.499599126 -0.000801748 0.799901632 1
Al Al12 1 0.499599126 0.500400874 0.799901632 1
Al Al13 1 -0.0 -0.0 0.600071894 1
Al Al14 1 -0.000669053 0.499665473 0.5998051 1
Al Al15 1 0.500334527 0.000669053 0.5998051 1
Al Al16 1 0.500334527 0.499665473 0.5998051 1
Al Al17 1 0.166963601 0.333927202 0.733212711 1
Al Al18 1 0.166963601 0.833035899 0.733212711 1
Al Al19 1 0.6666665 0.333333 0.733551792 1
Al Al20 1 0.666072298 0.833035899 0.733212711 1
Al Al21 1 0.332252628 0.166126564 0.865946782 1
Al Al22 1 0.3333335 0.666667 0.867340803 1
Al Al23 1 0.833873936 0.166126564 0.865946782 1
Al Al24 1 0.833873936 0.667747872 0.865946782 1
Al Al25 1 0.333565415 0.166782957 0.466090111 1
Al Al26 1 0.3333335 0.666667 0.466437088 1
Al Al27 1 0.833217543 0.166782957 0.466090111 1
Al Al28 1 0.833217543 0.666435085 0.466090111 1
Al Al29 1 -0.0 -0.0 0.00853675 1
Al Al30 1 -0.002742115 0.498628942 -0.001922288 1
Al Al31 1 0.501371058 0.002742115 -0.001922288 1
Al Al32 1 0.501371058 0.498628942 -0.001922288 1
Al Al33 1 0.166423071 0.332846142 0.533489938 1
Al Al34 1 0.166423071 0.833576429 0.533489938 1
Al Al35 1 0.6666665 0.333333 0.533241161 1
Al Al36 1 0.667153358 0.833576429 0.533489938 1
H H37 1 0.0 0.0 0.054854628 1
