
data_Al
_symmetry_space_group_name_H-M   'P 1'
_cell_length_a   4.03444705605
_cell_length_b   4.03444705605
_cell_length_c   36.3100235045
_cell_angle_alpha   90.
_cell_angle_beta   90.
_cell_angle_gamma   90
_symmetry_Int_Tables_number   1
_chemical_formula_structural   Al
_chemical_formula_sum   Al24
_cell_volume   591.009648854
_cell_formula_units_Z   24
loop_
_symmetry_equiv_pos_site_id
_symmetry_equiv_pos_as_xyz
1  'x, y, z'
loop_
_atom_site_type_symbol
_atom_site_label
_atom_site_symmetry_multiplicity
_atom_site_fract_x
_atom_site_fract_y
_atom_site_fract_z
_atom_site_occupancy
Al Al1 1 0.0 0.0 -0.000392361 1
Al Al2 1 0.5 0.5 -0.000391988 1
Al Al3 1 0.5 0.0 0.055779065 1
Al Al4 1 0.0 0.5 0.055779065 1
Al Al5 1 0.0 0.0 0.1112467 1
Al Al6 1 0.5 0.5 0.111245306 1
Al Al7 1 0.5 0.0 0.166803747 1
Al Al8 1 0.0 0.5 0.166803747 1
Al Al9 1 0.0 0.0 0.222219544 1
Al Al10 1 0.5 0.5 0.222219914 1
Al Al11 1 0.5 0.0 0.277749325 1
Al Al12 1 0.0 0.5 0.277749325 1
Al Al13 1 0.0 0.0 0.333362232 1
Al Al14 1 0.5 0.5 0.333363008 1
Al Al15 1 0.5 0.0 0.388889705 1
Al Al16 1 0.0 0.5 0.388889705 1
Al Al17 1 0.0 0.0 0.444308905 1
Al Al18 1 0.5 0.5 0.444309338 1
Al Al19 1 0.5 0.0 0.499864107 1
Al Al20 1 0.0 0.5 0.499864107 1
Al Al21 1 0.0 0.0 0.555330899 1
Al Al22 1 0.5 0.5 0.555331713 1
Al Al23 1 0.5 0.0 0.611504112 1
Al Al24 1 0.0 0.5 0.611504112 1
